<configuration>
  <input>
    <net-file value="net.net.xml"/>
    <route-files value="routes.rou.xml"/>
  </input>

  <time>
    <begin value="0"/>
    <end value="7200"/>
    <step-length value="1"/>
  </time>
</configuration>
