<!-- Generated by netgenerate usually. Placeholder. -->
<net>
   <!-- This file would contain the road network definition -->
</net>
