<!-- Generated by randomTrips.py usually. Placeholder. -->
<routes>
    <!-- This file would contain vehicle types and trips -->
</routes>
